Version 4
SHEET 1 900 884
WIRE 272 176 208 176
WIRE 336 176 272 176
WIRE 496 176 336 176
WIRE 720 176 496 176
WIRE 272 256 272 176
WIRE 496 272 496 176
WIRE 720 272 720 176
WIRE 272 400 272 336
WIRE 368 400 272 400
WIRE 720 400 720 352
WIRE 784 400 720 400
WIRE 816 400 784 400
WIRE 272 448 272 400
WIRE 368 464 368 400
WIRE 384 464 368 464
WIRE 416 464 384 464
WIRE 496 464 496 352
WIRE 496 464 480 464
WIRE 720 480 720 400
WIRE 720 480 672 480
WIRE 64 496 0 496
WIRE 208 496 144 496
WIRE 496 528 496 464
WIRE 544 528 496 528
WIRE 608 528 544 528
WIRE 272 608 272 544
WIRE 672 608 672 576
WIRE 784 608 784 400
WIRE 384 672 384 464
WIRE 784 720 784 688
WIRE 784 720 448 720
WIRE 384 864 384 768
FLAG 128 176 0
FLAG 272 608 0
FLAG 672 608 0
FLAG 544 528 Q2b
FLAG 368 400 LHC
FLAG 336 176 SRC
IOPIN 336 176 In
FLAG -80 496 0
FLAG 384 864 0
SYMBOL voltage 224 176 R90
WINDOW 0 -32 56 VBottom 2
WINDOW 3 32 56 VTop 2
WINDOW 123 0 0 Left 0
WINDOW 39 0 0 Left 0
SYMATTR InstName V1
SYMATTR Value 5
SYMBOL res 256 240 R0
SYMATTR InstName R1
SYMATTR Value 1K
SYMATTR SpiceLine tol=1 pwr=0.1
SYMBOL res 480 256 R0
SYMATTR InstName R2
SYMATTR Value 10k
SYMBOL res 704 256 R0
SYMATTR InstName R3
SYMATTR Value 1k
SYMBOL res 160 480 R90
WINDOW 0 0 56 VBottom 2
WINDOW 3 32 56 VTop 2
SYMATTR InstName R4
SYMATTR Value 10k
SYMBOL npn 208 448 R0
SYMATTR InstName Q1
SYMATTR Value 2N3904
SYMBOL npn 608 480 R0
SYMATTR InstName Q2
SYMATTR Value 2N3904
SYMBOL cap 480 448 R90
WINDOW 0 0 32 VBottom 2
WINDOW 3 32 32 VTop 2
SYMATTR InstName C1
SYMATTR Value 10nF
SYMBOL voltage 16 496 R90
WINDOW 0 -32 56 VBottom 2
WINDOW 3 32 56 VTop 2
WINDOW 123 0 0 Left 0
WINDOW 39 0 0 Left 0
SYMATTR InstName V2
SYMATTR Value PULSE(0 5 100us 0 0 20us 200us)
SYMBOL npn 448 672 M0
SYMATTR InstName Q3
SYMATTR Value 2N3904
SYMBOL res 768 592 R0
SYMATTR InstName R5
SYMATTR Value 20K
SYMATTR SpiceLine tol=1 pwr=0.1
TEXT -180 632 Left 2 !.tran 0.5m startup
